jnk.pp.1-53.sdf
  -OEChem-04100307473D

 32 36  0     0  0  0  0  0  0999 V2000
   18.0580    7.4600   33.3660 O   0  0  0  0  0  0  0  0  0  0  0  0
   18.9570    6.8340   32.6100 N   0  0  0  0  0  0  0  0  0  0  0  0
   20.1860    7.3290   32.0420 C   0  0  0  0  0  0  0  0  0  0  0  0
   20.7360    6.3320   31.2840 C   0  0  0  0  0  0  0  0  0  0  0  0
   20.2030    5.2730   31.1450 O   0  0  0  0  0  0  0  0  0  0  0  0
   21.8720    6.6850   30.6840 N   0  0  0  0  0  0  0  0  0  0  0  0
   22.6470    5.8120   29.7720 C   0  0  0  0  0  0  0  0  0  0  0  0
   23.6150    4.8670   30.4720 C   0  0  0  0  0  0  0  0  0  0  0  0
   23.0940    3.8980   31.4650 C   0  0  0  0  0  0  0  0  0  0  0  0
   24.0080    3.0720   32.2320 C   0  0  0  0  0  0  0  0  0  0  0  0
   23.5000    2.1550   33.0460 F   0  0  0  0  0  0  0  0  0  0  0  0
   25.4610    3.2140   32.0090 C   0  0  0  0  0  0  0  0  0  0  0  0
   25.9740    4.1820   31.0080 C   0  0  0  0  0  0  0  0  0  0  0  0
   27.4600    4.4140   30.7100 C   0  0  0  0  0  0  0  0  0  0  0  0
   27.6960    4.7800   29.3180 O   0  0  0  0  0  0  0  0  0  0  0  0
   26.9390    5.9240   28.8440 C   0  0  0  0  0  0  0  0  0  0  0  0
   25.5340    5.8870   29.2570 O   0  0  0  0  0  0  0  0  0  0  0  0
   25.0430    5.0090   30.2340 C   0  0  0  0  0  0  0  0  0  0  0  0
   22.1410    7.9880   31.0230 C   0  0  0  0  0  0  0  0  0  0  0  0
   23.2460    8.8910   30.6580 C   0  0  0  0  0  0  0  0  0  0  0  0
   23.2780   10.2570   31.1730 C   0  0  0  0  0  0  0  0  0  0  0  0
   22.2060   10.7430   32.0550 C   0  0  0  0  0  0  0  0  0  0  0  0
   21.0580    9.8940   32.4620 C   0  0  0  0  0  0  0  0  0  0  0  0
   19.9660   10.4590   33.3090 C   0  0  0  0  0  0  0  0  0  0  0  0
   19.8350   11.7740   33.6010 C   0  0  0  0  0  0  0  0  0  0  0  0
   18.7220   12.4400   34.3190 C   0  0  0  0  0  0  0  0  0  0  0  0
   18.1420   11.8770   35.5580 C   0  0  0  0  0  0  0  0  0  0  0  0
   17.0520   12.5490   36.2570 C   0  0  0  0  0  0  0  0  0  0  0  0
   16.5170   13.8120   35.7280 C   0  0  0  0  0  0  0  0  0  0  0  0
   17.0870   14.3880   34.4890 C   0  0  0  0  0  0  0  0  0  0  0  0
   18.1880   13.7010   33.7850 C   0  0  0  0  0  0  0  0  0  0  0  0
   21.0040    8.4910   31.9600 C   0  0  0  0  0  0  0  0  0  0  0  0
  1  2  1  0  0  0  0
  2  3  2  0  0  0  0
  3 32  1  0  0  0  0
  3  4  1  0  0  0  0
  4  5  2  0  0  0  0
  4  6  1  0  0  0  0
  6  7  1  0  0  0  0
  7  8  1  0  0  0  0
  8 18  2  0  0  0  0
  8  9  1  0  0  0  0
  9 10  2  0  0  0  0
 10 11  1  0  0  0  0
 10 12  1  0  0  0  0
 12 13  2  0  0  0  0
 13 18  1  0  0  0  0
 13 14  1  0  0  0  0
 14 15  1  0  0  0  0
 15 16  1  0  0  0  0
 16 17  1  0  0  0  0
 17 18  1  0  0  0  0
  6 19  1  0  0  0  0
 19 32  2  0  0  0  0
 19 20  1  0  0  0  0
 20 21  2  0  0  0  0
 21 22  1  0  0  0  0
 22 23  2  0  0  0  0
 23 24  1  0  0  0  0
 24 25  2  0  0  0  0
 25 26  1  0  0  0  0
 26 31  2  0  0  0  0
 26 27  1  0  0  0  0
 27 28  2  0  0  0  0
 28 29  1  0  0  0  0
 29 30  2  0  0  0  0
 30 31  1  0  0  0  0
 23 32  1  0  0  0  0
M  END
$$$$
vertex_jnk3_structure3_lig
