jnk.pp.1-3.sdf
  -OEChem-04100307463D

 25 28  0     0  0  0  0  0  0999 V2000
   22.1050   10.7670   30.4910 C   0  0  0  0  0  0  0  0  0  0  0  0
   21.2950   11.4760   31.6030 C   0  0  0  0  0  0  0  0  0  0  0  0
   21.2640   12.7850   31.8280 N   0  0  0  0  0  0  0  0  0  0  0  0
   20.5480   13.2340   32.9250 O   0  0  0  0  0  0  0  0  0  0  0  0
   20.0040   12.0750   33.4140 C   0  0  0  0  0  0  0  0  0  0  0  0
   20.3910   10.9540   32.6850 C   0  0  0  0  0  0  0  0  0  0  0  0
   20.0220    9.4720   32.8250 C   0  0  0  0  0  0  0  0  0  0  0  0
   18.6290    9.0400   33.0810 C   0  0  0  0  0  0  0  0  0  0  0  0
   18.3550    7.6040   33.1600 C   0  0  0  0  0  0  0  0  0  0  0  0
   19.4160    6.7230   32.9860 N   0  0  0  0  0  0  0  0  0  0  0  0
   20.7360    7.0760   32.7440 C   0  0  0  0  0  0  0  0  0  0  0  0
   21.6650    6.0290   32.5140 N   0  0  0  0  0  0  0  0  0  0  0  0
   22.7700    5.9220   31.6360 C   0  0  0  0  0  0  0  0  0  0  0  0
   23.5070    4.6640   31.7420 C   0  0  0  0  0  0  0  0  0  0  0  0
   24.7260    4.4430   30.9760 C   0  0  0  0  0  0  0  0  0  0  0  0
   25.2310    5.5050   30.0740 C   0  0  0  0  0  0  0  0  0  0  0  0
   24.5120    6.7760   29.9400 C   0  0  0  0  0  0  0  0  0  0  0  0
   23.2910    6.9760   30.7120 C   0  0  0  0  0  0  0  0  0  0  0  0
   21.0630    8.5070   32.6700 C   0  0  0  0  0  0  0  0  0  0  0  0
   19.0550   12.0890   34.5600 C   0  0  0  0  0  0  0  0  0  0  0  0
   19.2980   11.2650   35.7500 C   0  0  0  0  0  0  0  0  0  0  0  0
   18.3260   11.2480   36.8370 C   0  0  0  0  0  0  0  0  0  0  0  0
   17.1070   12.0600   36.7390 C   0  0  0  0  0  0  0  0  0  0  0  0
   16.8720   12.8830   35.5550 C   0  0  0  0  0  0  0  0  0  0  0  0
   17.8430   12.8940   34.4750 C   0  0  0  0  0  0  0  0  0  0  0  0
  1  2  1  0  0  0  0
  2  6  1  0  0  0  0
  2  3  2  0  0  0  0
  3  4  1  0  0  0  0
  4  5  1  0  0  0  0
  5  6  2  0  0  0  0
  6  7  1  0  0  0  0
  7 19  2  0  0  0  0
  7  8  1  0  0  0  0
  8  9  2  0  0  0  0
  9 10  1  0  0  0  0
 10 11  2  0  0  0  0
 11 12  1  0  0  0  0
 12 13  1  0  0  0  0
 13 18  2  0  0  0  0
 13 14  1  0  0  0  0
 14 15  2  0  0  0  0
 15 16  1  0  0  0  0
 16 17  2  0  0  0  0
 17 18  1  0  0  0  0
 11 19  1  0  0  0  0
  5 20  1  0  0  0  0
 20 25  2  0  0  0  0
 20 21  1  0  0  0  0
 21 22  2  0  0  0  0
 22 23  1  0  0  0  0
 23 24  2  0  0  0  0
 24 25  1  0  0  0  0
M  END
$$$$
vertex_jnk3_structure24_lig
