jnk.pp.1-17.sdf
  -OEChem-12220712583D

 38 39  0     0  0  0  0  0  0999 V2000
   18.4692   14.0507   32.8912 C   0  0  0  0  0  0  0  0  0  0  0  0
   17.3119   14.4837   33.5422 C   0  0  0  0  0  0  0  0  0  0  0  0
   23.2016    7.6061   30.3041 C   0  0  0  0  0  0  0  0  0  0  0  0
   18.7009   12.2446   34.4863 C   0  0  0  0  0  0  0  0  0  0  0  0
   22.2476    6.9185   31.0148 C   0  0  0  0  0  0  0  0  0  0  0  0
   19.1489   12.9091   33.3427 C   0  0  0  0  0  0  0  0  0  0  0  0
   23.1706    9.0293   30.5452 C   0  0  0  0  0  0  0  0  0  0  0  0
   16.8443   13.7849   34.6485 C   0  0  0  0  0  0  0  0  0  0  0  0
   17.5773   12.7191   35.1572 C   0  0  0  0  0  0  0  0  0  0  0  0
   22.1503    9.3662   31.4301 C   0  0  0  0  0  0  0  0  0  0  0  0
   20.3525   12.4432   32.6008 C   0  0  0  0  0  0  0  0  0  0  0  0
   24.0604   10.0268   29.9472 C   0  0  0  0  0  0  0  0  0  0  0  0
   14.7575   13.1981   35.5597 C   0  0  0  0  0  0  0  0  0  0  0  0
   17.9722   11.8900   37.3165 C   0  0  0  0  0  0  0  0  0  0  0  0
   20.6264   10.9405   32.5796 C   0  0  0  0  0  0  0  0  0  0  0  0
   25.2599    9.5517   29.4913 N   0  0  0  0  0  0  0  0  0  0  0  0
   21.8377   10.6278   31.8387 N   0  0  0  0  0  0  0  0  0  0  0  0
   21.0400   13.2666   31.9994 O   0  0  0  0  0  0  0  0  0  0  0  0
   23.8079   11.2251   29.8657 O   0  0  0  0  0  0  0  0  0  0  0  0
   15.7016   14.2258   35.2492 O   0  0  0  0  0  0  0  0  0  0  0  0
   17.0671   12.1384   36.2738 O   0  0  0  0  0  0  0  0  0  0  0  0
   21.3415    7.9554   32.0114 S   0  0  0  0  0  0  0  0  0  0  0  0
   18.8388   14.6108   32.0341 H   0  0  0  0  0  0  0  0  0  0  0  0
   16.7759   15.3575   33.1839 H   0  0  0  0  0  0  0  0  0  0  0  0
   23.8855    7.1124   29.6251 H   0  0  0  0  0  0  0  0  0  0  0  0
   19.2141   11.3709   34.8675 H   0  0  0  0  0  0  0  0  0  0  0  0
   22.0547    5.8540   31.0102 H   0  0  0  0  0  0  0  0  0  0  0  0
   13.7620   13.5371   35.2691 H   0  0  0  0  0  0  0  0  0  0  0  0
   14.7614   13.0177   36.6377 H   0  0  0  0  0  0  0  0  0  0  0  0
   14.9306   12.2638   35.0224 H   0  0  0  0  0  0  0  0  0  0  0  0
   17.4754   11.2447   38.0384 H   0  0  0  0  0  0  0  0  0  0  0  0
   18.1729   12.8430   37.7964 H   0  0  0  0  0  0  0  0  0  0  0  0
   18.8823   11.3755   37.0007 H   0  0  0  0  0  0  0  0  0  0  0  0
   19.7671   10.4656   32.1024 H   0  0  0  0  0  0  0  0  0  0  0  0
   20.7403   10.5706   33.6011 H   0  0  0  0  0  0  0  0  0  0  0  0
   25.6160    8.6622   29.8062 H   0  0  0  0  0  0  0  0  0  0  0  0
   25.9309   10.2604   29.2266 H   0  0  0  0  0  0  0  0  0  0  0  0
   22.2400   11.4301   31.3332 H   0  0  0  0  0  0  0  0  0  0  0  0
  1  2  2  0  0  0  0
  1  6  1  0  0  0  0
  2  8  1  0  0  0  0
  3  5  2  0  0  0  0
  3  7  1  0  0  0  0
  4  6  2  0  0  0  0
  4  9  1  0  0  0  0
  5 22  1  0  0  0  0
  6 11  1  0  0  0  0
  7 10  2  0  0  0  0
  7 12  1  0  0  0  0
  8  9  2  0  0  0  0
  8 20  1  0  0  0  0
  9 21  1  0  0  0  0
 10 17  1  0  0  0  0
 10 22  1  0  0  0  0
 11 15  1  0  0  0  0
 11 18  2  0  0  0  0
 12 16  1  0  0  0  0
 12 19  2  0  0  0  0
 13 20  1  0  0  0  0
 14 21  1  0  0  0  0
 15 17  1  0  0  0  0
  1 23  1  0  0  0  0
  2 24  1  0  0  0  0
  3 25  1  0  0  0  0
  4 26  1  0  0  0  0
  5 27  1  0  0  0  0
 13 28  1  0  0  0  0
 13 29  1  0  0  0  0
 13 30  1  0  0  0  0
 14 31  1  0  0  0  0
 14 32  1  0  0  0  0
 14 33  1  0  0  0  0
 15 34  1  0  0  0  0
 15 35  1  0  0  0  0
 16 36  1  0  0  0  0
 16 37  1  0  0  0  0
 17 38  1  0  0  0  0
M  END
$$$$
