jnk.pp.1-8.sdf
  -OEChem-04100307473D

 31 35  0     0  0  0  0  0  0999 V2000
   21.7050   10.7440   30.3290 C   0  0  0  0  0  0  0  0  0  0  0  0
   21.0760   11.3460   31.5930 C   0  0  0  0  0  0  0  0  0  0  0  0
   21.2610   12.6630   31.7990 O   0  0  0  0  0  0  0  0  0  0  0  0
   20.3110   12.9340   32.7480 N   0  0  0  0  0  0  0  0  0  0  0  0
   19.7410   11.9240   33.3230 C   0  0  0  0  0  0  0  0  0  0  0  0
   20.2580   10.7730   32.5350 C   0  0  0  0  0  0  0  0  0  0  0  0
   19.9340    9.2940   32.7340 C   0  0  0  0  0  0  0  0  0  0  0  0
   18.6500    8.8440   33.2580 C   0  0  0  0  0  0  0  0  0  0  0  0
   18.5370    7.4070   33.3890 C   0  0  0  0  0  0  0  0  0  0  0  0
   19.5690    6.5800   33.0400 N   0  0  0  0  0  0  0  0  0  0  0  0
   20.7460    7.0640   32.5450 C   0  0  0  0  0  0  0  0  0  0  0  0
   21.7650    6.1920   32.1220 N   0  0  0  0  0  0  0  0  0  0  0  0
   22.9420    6.4660   31.3760 C   0  0  0  0  0  0  0  0  0  0  0  0
   23.5470    5.3480   30.7270 C   0  0  0  0  0  0  0  0  0  0  0  0
   24.7380    5.6110   29.9950 N   0  0  0  0  0  0  0  0  0  0  0  0
   25.4400    6.8030   29.8110 C   0  0  0  0  0  0  0  0  0  0  0  0
   24.8830    7.9830   30.4490 C   0  0  0  0  0  0  0  0  0  0  0  0
   23.6500    7.7510   31.1960 C   0  0  0  0  0  0  0  0  0  0  0  0
   25.5300    9.2400   30.3800 N   0  0  0  0  0  0  0  0  0  0  0  0
   25.5650   10.0680   31.5970 C   0  0  0  0  0  0  0  0  0  0  0  0
   26.1640   11.4460   31.4400 C   0  0  0  0  0  0  0  0  0  0  0  0
   27.3530   11.3990   30.5170 C   0  0  0  0  0  0  0  0  0  0  0  0
   26.9270   11.0020   29.1170 C   0  0  0  0  0  0  0  0  0  0  0  0
   26.1640    9.6710   29.1020 C   0  0  0  0  0  0  0  0  0  0  0  0
   20.9000    8.4250   32.4110 N   0  0  0  0  0  0  0  0  0  0  0  0
   18.8540   12.0000   34.5010 C   0  0  0  0  0  0  0  0  0  0  0  0
   19.1500   11.1430   35.6580 C   0  0  0  0  0  0  0  0  0  0  0  0
   18.2700   11.1620   36.8190 C   0  0  0  0  0  0  0  0  0  0  0  0
   17.0880   12.0340   36.8520 C   0  0  0  0  0  0  0  0  0  0  0  0
   16.7990   12.9020   35.6850 C   0  0  0  0  0  0  0  0  0  0  0  0
   17.6790   12.8850   34.5100 C   0  0  0  0  0  0  0  0  0  0  0  0
  1  2  1  0  0  0  0
  2  6  2  0  0  0  0
  2  3  1  0  0  0  0
  3  4  1  0  0  0  0
  4  5  2  0  0  0  0
  5  6  1  0  0  0  0
  6  7  1  0  0  0  0
  7 25  2  0  0  0  0
  7  8  1  0  0  0  0
  8  9  2  0  0  0  0
  9 10  1  0  0  0  0
 10 11  2  0  0  0  0
 11 12  1  0  0  0  0
 12 13  1  0  0  0  0
 13 18  2  0  0  0  0
 13 14  1  0  0  0  0
 14 15  2  0  0  0  0
 15 16  1  0  0  0  0
 16 17  2  0  0  0  0
 17 18  1  0  0  0  0
 17 19  1  0  0  0  0
 19 24  1  0  0  0  0
 19 20  1  0  0  0  0
 20 21  1  0  0  0  0
 21 22  1  0  0  0  0
 22 23  1  0  0  0  0
 23 24  1  0  0  0  0
 11 25  1  0  0  0  0
  5 26  1  0  0  0  0
 26 31  2  0  0  0  0
 26 27  1  0  0  0  0
 27 28  2  0  0  0  0
 28 29  1  0  0  0  0
 29 30  2  0  0  0  0
 30 31  1  0  0  0  0
M  END
$$$$
vertex_jnk3_structure20_lig
