jnk.pp.1-42.sdf
  -OEChem-04100307473D

 32 36  0     0  0  0  0  0  0999 V2000
   22.4430    7.1220   30.3290 O   0  0  0  0  0  0  0  0  0  0  0  0
   22.4470    6.2540   31.2060 C   0  0  0  0  0  0  0  0  0  0  0  0
   21.6120    6.1650   32.2100 N   0  0  0  0  0  0  0  0  0  0  0  0
   20.6640    7.0780   32.5090 C   0  0  0  0  0  0  0  0  0  0  0  0
   19.4150    6.6500   32.9460 N   0  0  0  0  0  0  0  0  0  0  0  0
   18.4400    7.5370   33.2720 C   0  0  0  0  0  0  0  0  0  0  0  0
   18.6750    8.9520   33.1700 C   0  0  0  0  0  0  0  0  0  0  0  0
   20.0180    9.3260   32.7040 C   0  0  0  0  0  0  0  0  0  0  0  0
   20.9720    8.4010   32.3850 N   0  0  0  0  0  0  0  0  0  0  0  0
   20.3750   10.7790   32.5800 C   0  0  0  0  0  0  0  0  0  0  0  0
   21.1730   11.3730   31.6420 C   0  0  0  0  0  0  0  0  0  0  0  0
   21.9290   10.7830   30.4240 C   0  0  0  0  0  0  0  0  0  0  0  0
   23.4210   10.8740   30.4680 N   0  0  0  0  0  0  0  0  0  0  0  0
   23.9510   10.0560   31.5640 C   0  0  0  0  0  0  0  0  0  0  0  0
   25.4770   10.0790   31.5390 C   0  0  0  0  0  0  0  0  0  0  0  0
   25.9530   11.4100   31.6580 O   0  0  0  0  0  0  0  0  0  0  0  0
   25.5000   12.2280   30.5410 C   0  0  0  0  0  0  0  0  0  0  0  0
   23.9670   12.2550   30.4540 C   0  0  0  0  0  0  0  0  0  0  0  0
   21.1450   12.7240   31.7450 O   0  0  0  0  0  0  0  0  0  0  0  0
   20.2210   12.9280   32.7170 N   0  0  0  0  0  0  0  0  0  0  0  0
   19.7600   11.9150   33.3560 C   0  0  0  0  0  0  0  0  0  0  0  0
   18.8540   11.9820   34.5450 C   0  0  0  0  0  0  0  0  0  0  0  0
   19.0760   11.1210   35.7120 C   0  0  0  0  0  0  0  0  0  0  0  0
   18.1370   11.1520   36.8410 C   0  0  0  0  0  0  0  0  0  0  0  0
   16.9780   12.0360   36.8170 C   0  0  0  0  0  0  0  0  0  0  0  0
   16.7710   12.8980   35.6450 C   0  0  0  0  0  0  0  0  0  0  0  0
   17.7030   12.8730   34.5160 C   0  0  0  0  0  0  0  0  0  0  0  0
   23.4450    5.2010   31.1780 C   0  0  0  0  0  0  0  0  0  0  0  0
   23.4980    4.1210   31.9670 C   0  0  0  0  0  0  0  0  0  0  0  0
   24.6060    3.2210   31.7310 C   0  0  0  0  0  0  0  0  0  0  0  0
   25.4780    3.6320   30.8070 C   0  0  0  0  0  0  0  0  0  0  0  0
   24.8170    5.1770   30.0650 S   0  0  0  0  0  0  0  0  0  0  0  0
  1  2  2  0  0  0  0
  2  3  1  0  0  0  0
  3  4  1  0  0  0  0
  4  9  2  0  0  0  0
  4  5  1  0  0  0  0
  5  6  2  0  0  0  0
  6  7  1  0  0  0  0
  7  8  2  0  0  0  0
  8  9  1  0  0  0  0
  8 10  1  0  0  0  0
 10 21  1  0  0  0  0
 10 11  2  0  0  0  0
 11 12  1  0  0  0  0
 12 13  1  0  0  0  0
 13 18  1  0  0  0  0
 13 14  1  0  0  0  0
 14 15  1  0  0  0  0
 15 16  1  0  0  0  0
 16 17  1  0  0  0  0
 17 18  1  0  0  0  0
 11 19  1  0  0  0  0
 19 20  1  0  0  0  0
 20 21  2  0  0  0  0
 21 22  1  0  0  0  0
 22 27  2  0  0  0  0
 22 23  1  0  0  0  0
 23 24  2  0  0  0  0
 24 25  1  0  0  0  0
 25 26  2  0  0  0  0
 26 27  1  0  0  0  0
  2 28  1  0  0  0  0
 28 32  1  0  0  0  0
 28 29  2  0  0  0  0
 29 30  1  0  0  0  0
 30 31  2  0  0  0  0
 31 32  1  0  0  0  0
M  END
$$$$
vertex_jnk3_structure26_lig
