jnk.pp.1-2.sdf
  -OEChem-12220712583D

 62 66  0     1  0  0  0  0  0999 V2000
   27.7175    8.2057   28.4714 C   0  0  0  0  0  0  0  0  0  0  0  0
   25.3193   14.5374   30.4057 C   0  0  0  0  0  0  0  0  0  0  0  0
   24.1927   14.8339   31.1864 C   0  0  0  0  0  0  0  0  0  0  0  0
   27.6488    6.8384   28.7938 C   0  0  0  0  0  0  0  0  0  0  0  0
   20.3038   15.1888   31.3401 C   0  0  0  0  0  0  0  0  0  0  0  0
   23.0900   12.7339   30.5900 C   0  0  0  0  0  0  0  0  0  0  0  0
   25.6281    8.5208   29.5656 C   0  0  0  0  0  0  0  0  0  0  0  0
   20.0956   13.3678   32.9012 C   0  0  0  0  0  0  0  0  0  0  0  0
   18.9388   15.3976   31.4867 C   0  0  0  0  0  0  0  0  0  0  0  0
   24.2459   12.3995   29.8714 C   0  0  0  0  0  0  0  0  0  0  0  0
   26.7129    9.0840   28.8839 C   0  0  0  0  0  0  0  0  0  0  0  0
   25.3120   13.2805   29.8174 C   0  0  0  0  0  0  0  0  0  0  0  0
   23.1127   13.9409   31.2935 C   0  0  0  0  0  0  0  0  0  0  0  0
   20.8851   14.1803   32.0943 C   0  0  0  0  0  0  0  0  0  0  0  0
   25.4773    7.1532   29.7914 C   0  0  0  0  0  0  0  0  0  0  0  0
   26.5307    6.3125   29.4574 C   0  0  0  0  0  0  0  0  0  0  0  0
   18.7482   13.6754   33.0076 C   0  0  0  0  0  0  0  0  0  0  0  0
   25.8646   11.3848   28.9493 C   0  0  0  0  0  0  0  0  0  0  0  0
   17.9214   13.0126   34.0691 C   0  0  0  0  0  0  0  0  0  0  0  0
   22.6118    8.9744   31.8164 C   0  0  0  0  0  0  0  0  0  0  0  0
   22.2761    8.8437   30.3463 C   0  0  0  0  0  0  0  0  0  0  0  0
   22.1455    7.6552   32.4268 C   0  0  0  0  0  0  0  0  0  0  0  0
   21.9465    7.3650   30.1656 C   0  0  1  0  0  0  0  0  0  0  0  0
   19.9636    7.5738   31.6872 C   0  0  0  0  0  0  0  0  0  0  0  0
   15.8476   13.3061   35.3893 C   0  0  0  0  0  0  0  0  0  0  0  0
   23.2015    6.4864   29.7933 C   0  0  0  0  0  0  0  0  0  0  0  0
   18.1509   14.6921   32.3267 N   0  0  0  0  0  0  0  0  0  0  0  0
   24.5863   11.2422   29.2383 N   0  0  0  0  0  0  0  0  0  0  0  0
   21.2883    7.0097   31.4494 N   0  0  2  0  0  0  0  0  0  0  0  0
   26.7775   10.4624   28.5651 N   0  0  0  0  0  0  0  0  0  0  0  0
   16.6706   13.5687   34.2381 N   0  0  0  0  0  0  0  0  0  0  0  0
   18.3752   12.1012   34.7506 O   0  0  0  0  0  0  0  0  0  0  0  0
   26.3443   12.6513   29.1744 O   0  0  0  0  0  0  0  0  0  0  0  0
   22.2373   14.1743   32.3277 O   0  0  0  0  0  0  0  0  0  0  0  0
   24.3989    6.7369   30.5340 O   0  0  0  0  0  0  0  0  0  0  0  0
   26.4993    4.6341   29.8523 Cl  0  0  0  0  0  0  0  0  0  0  0  0
   28.5806    8.5722   27.9216 H   0  0  0  0  0  0  0  0  0  0  0  0
   26.1813   15.1903   30.3570 H   0  0  0  0  0  0  0  0  0  0  0  0
   24.1870   15.7479   31.7789 H   0  0  0  0  0  0  0  0  0  0  0  0
   28.4669    6.1821   28.5056 H   0  0  0  0  0  0  0  0  0  0  0  0
   20.9061   15.8608   30.7403 H   0  0  0  0  0  0  0  0  0  0  0  0
   22.2888   12.0151   30.7049 H   0  0  0  0  0  0  0  0  0  0  0  0
   24.9017    9.1727   30.0164 H   0  0  0  0  0  0  0  0  0  0  0  0
   20.5271   12.6050   33.5341 H   0  0  0  0  0  0  0  0  0  0  0  0
   18.4331   16.2032   30.9621 H   0  0  0  0  0  0  0  0  0  0  0  0
   23.6733    9.1631   31.9805 H   0  0  0  0  0  0  0  0  0  0  0  0
   22.0601    9.8201   32.2435 H   0  0  0  0  0  0  0  0  0  0  0  0
   21.4309    9.5078   30.1593 H   0  0  0  0  0  0  0  0  0  0  0  0
   23.0337    9.2048   29.6656 H   0  0  0  0  0  0  0  0  0  0  0  0
   22.9379    6.9303   32.5224 H   0  0  0  0  0  0  0  0  0  0  0  0
   21.6796    7.7905   33.4095 H   0  0  0  0  0  0  0  0  0  0  0  0
   21.2476    7.1717   29.3552 H   0  0  0  0  0  0  0  0  0  0  0  0
   19.9544    8.6634   31.8016 H   0  0  0  0  0  0  0  0  0  0  0  0
   19.2658    7.3323   30.8944 H   0  0  0  0  0  0  0  0  0  0  0  0
   19.5571    7.1411   32.6085 H   0  0  0  0  0  0  0  0  0  0  0  0
   15.8985   14.1779   36.0487 H   0  0  0  0  0  0  0  0  0  0  0  0
   14.8158   13.1679   35.0569 H   0  0  0  0  0  0  0  0  0  0  0  0
   16.1889   12.4257   35.9365 H   0  0  0  0  0  0  0  0  0  0  0  0
   23.4046    6.5985   28.7299 H   0  0  0  0  0  0  0  0  0  0  0  0
   22.9443    5.4327   29.9504 H   0  0  0  0  0  0  0  0  0  0  0  0
   27.7198   10.8038   28.4241 H   0  0  0  0  0  0  0  0  0  0  0  0
   16.4655   14.3686   33.6443 H   0  0  0  0  0  0  0  0  0  0  0  0
  1  4  2  0  0  0  0
  1 11  1  0  0  0  0
  2  3  2  0  0  0  0
  2 12  1  0  0  0  0
  3 13  1  0  0  0  0
  4 16  1  0  0  0  0
  5  9  2  0  0  0  0
  5 14  1  0  0  0  0
  6 10  1  0  0  0  0
  6 13  2  0  0  0  0
  7 11  2  0  0  0  0
  7 15  1  0  0  0  0
  8 14  2  0  0  0  0
  8 17  1  0  0  0  0
  9 27  1  0  0  0  0
 10 12  2  0  0  0  0
 10 28  1  0  0  0  0
 11 30  1  0  0  0  0
 12 33  1  0  0  0  0
 13 34  1  0  0  0  0
 14 34  1  0  0  0  0
 15 16  2  0  0  0  0
 15 35  1  0  0  0  0
 16 36  1  0  0  0  0
 17 19  1  0  0  0  0
 17 27  2  0  0  0  0
 18 28  2  0  0  0  0
 18 30  1  0  0  0  0
 18 33  1  0  0  0  0
 19 31  1  0  0  0  0
 19 32  2  0  0  0  0
 20 21  1  0  0  0  0
 20 22  1  0  0  0  0
 21 23  1  0  0  0  0
 22 29  1  0  0  0  0
 23 26  1  0  0  0  0
 23 29  1  0  0  0  0
 24 29  1  0  0  0  0
 25 31  1  0  0  0  0
 26 35  1  0  0  0  0
  1 37  1  0  0  0  0
  2 38  1  0  0  0  0
  3 39  1  0  0  0  0
  4 40  1  0  0  0  0
  5 41  1  0  0  0  0
  6 42  1  0  0  0  0
  7 43  1  0  0  0  0
  8 44  1  0  0  0  0
  9 45  1  0  0  0  0
 20 46  1  0  0  0  0
 20 47  1  0  0  0  0
 21 48  1  0  0  0  0
 21 49  1  0  0  0  0
 22 50  1  0  0  0  0
 22 51  1  0  0  0  0
 23 52  1  0  0  0  0
 24 53  1  0  0  0  0
 24 54  1  0  0  0  0
 24 55  1  0  0  0  0
 25 56  1  0  0  0  0
 25 57  1  0  0  0  0
 25 58  1  0  0  0  0
 26 59  1  0  0  0  0
 26 60  1  0  0  0  0
 30 61  1  0  0  0  0
 31 62  1  0  0  0  0
M  END
$$$$
