jnk.pp.1-57.sdf
  -OEChem-04100307473D

 20 22  0     0  0  0  0  0  0999 V2000
   23.7020    3.5980   31.4820 C   0  0  0  0  0  0  0  0  0  0  0  0
   23.9190    4.4520   29.9090 S   0  0  0  0  0  0  0  0  0  0  0  0
   23.0400    5.7000   30.5390 C   0  0  0  0  0  0  0  0  0  0  0  0
   21.6520    5.3380   31.4050 S   0  0  0  0  0  0  0  0  0  0  0  0
   21.3980    7.0610   31.5000 C   0  0  0  0  0  0  0  0  0  0  0  0
   20.1790    7.3570   32.1560 C   0  0  0  0  0  0  0  0  0  0  0  0
   19.4680    8.5520   32.1420 C   0  0  0  0  0  0  0  0  0  0  0  0
   18.3250    8.2870   32.9100 C   0  0  0  0  0  0  0  0  0  0  0  0
   18.3460    7.0060   33.3640 N   0  0  0  0  0  0  0  0  0  0  0  0
   19.5010    6.5240   32.8590 N   0  0  0  0  0  0  0  0  0  0  0  0
   22.3280    7.7990   30.9140 C   0  0  0  0  0  0  0  0  0  0  0  0
   23.3550    6.9690   30.4030 C   0  0  0  0  0  0  0  0  0  0  0  0
   24.5450    7.3560   29.7220 C   0  0  0  0  0  0  0  0  0  0  0  0
   25.4890    7.5550   29.0590 N   0  0  0  0  0  0  0  0  0  0  0  0
   22.3000    9.2130   30.6670 C   0  0  0  0  0  0  0  0  0  0  0  0
   22.4640   10.0890   31.7550 C   0  0  0  0  0  0  0  0  0  0  0  0
   22.4420   11.4690   31.5440 C   0  0  0  0  0  0  0  0  0  0  0  0
   22.2530   11.9240   30.2100 C   0  0  0  0  0  0  0  0  0  0  0  0
   22.0800   11.0630   29.1070 C   0  0  0  0  0  0  0  0  0  0  0  0
   22.1080    9.6810   29.3530 C   0  0  0  0  0  0  0  0  0  0  0  0
  1  2  1  0  0  0  0
  2  3  1  0  0  0  0
  3 12  2  0  0  0  0
  3  4  1  0  0  0  0
  4  5  1  0  0  0  0
  5  6  1  0  0  0  0
  6 10  2  0  0  0  0
  6  7  1  0  0  0  0
  7  8  2  0  0  0  0
  8  9  1  0  0  0  0
  9 10  1  0  0  0  0
  5 11  2  0  0  0  0
 11 12  1  0  0  0  0
 12 13  1  0  0  0  0
 13 14  3  0  0  0  0
 11 15  1  0  0  0  0
 15 20  2  0  0  0  0
 15 16  1  0  0  0  0
 16 17  2  0  0  0  0
 17 18  1  0  0  0  0
 18 19  2  0  0  0  0
 19 20  1  0  0  0  0
M  END
$$$$
vertex_jnk3_structure39_lig
