jnk.pp.1-39.sdf
  -OEChem-04100307463D

 27 30  0     0  0  0  0  0  0999 V2000
   22.1710   10.3030   30.4800 C   0  0  0  0  0  0  0  0  0  0  0  0
   21.3880   11.0080   31.5910 C   0  0  0  0  0  0  0  0  0  0  0  0
   21.4140   12.3610   31.5940 O   0  0  0  0  0  0  0  0  0  0  0  0
   20.5740   12.6740   32.6360 N   0  0  0  0  0  0  0  0  0  0  0  0
   20.0230   11.7020   33.2840 C   0  0  0  0  0  0  0  0  0  0  0  0
   20.5500   10.4990   32.5640 C   0  0  0  0  0  0  0  0  0  0  0  0
   20.1820    9.0530   32.7280 C   0  0  0  0  0  0  0  0  0  0  0  0
   18.8480    8.6940   33.1690 C   0  0  0  0  0  0  0  0  0  0  0  0
   18.6300    7.2740   33.2240 C   0  0  0  0  0  0  0  0  0  0  0  0
   19.6130    6.3610   32.8880 N   0  0  0  0  0  0  0  0  0  0  0  0
   20.8550    6.7500   32.4810 C   0  0  0  0  0  0  0  0  0  0  0  0
   21.8070    5.7690   32.1330 N   0  0  0  0  0  0  0  0  0  0  0  0
   22.9120    6.0570   31.4420 C   0  0  0  0  0  0  0  0  0  0  0  0
   22.9910    7.0390   30.7030 O   0  0  0  0  0  0  0  0  0  0  0  0
   24.1070    5.1240   31.6130 C   0  0  0  0  0  0  0  0  0  0  0  0
   23.6680    3.7440   32.0970 C   0  0  0  0  0  0  0  0  0  0  0  0
   24.8430    2.8040   32.3380 C   0  0  0  0  0  0  0  0  0  0  0  0
   25.6980    2.6360   31.0810 C   0  0  0  0  0  0  0  0  0  0  0  0
   26.0240    3.9770   30.3960 C   0  0  0  0  0  0  0  0  0  0  0  0
   24.7940    4.8780   30.2740 C   0  0  0  0  0  0  0  0  0  0  0  0
   21.1360    8.1110   32.4050 N   0  0  0  0  0  0  0  0  0  0  0  0
   19.1020   11.8600   34.4290 C   0  0  0  0  0  0  0  0  0  0  0  0
   19.2760   11.0450   35.6480 C   0  0  0  0  0  0  0  0  0  0  0  0
   18.2930   11.1670   36.7430 C   0  0  0  0  0  0  0  0  0  0  0  0
   17.1640   12.0790   36.6250 C   0  0  0  0  0  0  0  0  0  0  0  0
   17.0170   12.8930   35.3910 C   0  0  0  0  0  0  0  0  0  0  0  0
   17.9920   12.7830   34.2980 C   0  0  0  0  0  0  0  0  0  0  0  0
  1  2  1  0  0  0  0
  2  6  2  0  0  0  0
  2  3  1  0  0  0  0
  3  4  1  0  0  0  0
  4  5  2  0  0  0  0
  5  6  1  0  0  0  0
  6  7  1  0  0  0  0
  7 21  2  0  0  0  0
  7  8  1  0  0  0  0
  8  9  2  0  0  0  0
  9 10  1  0  0  0  0
 10 11  2  0  0  0  0
 11 12  1  0  0  0  0
 12 13  1  0  0  0  0
 13 14  2  0  0  0  0
 13 15  1  0  0  0  0
 15 20  1  0  0  0  0
 15 16  1  0  0  0  0
 16 17  1  0  0  0  0
 17 18  1  0  0  0  0
 18 19  1  0  0  0  0
 19 20  1  0  0  0  0
 11 21  1  0  0  0  0
  5 22  1  0  0  0  0
 22 27  2  0  0  0  0
 22 23  1  0  0  0  0
 23 24  2  0  0  0  0
 24 25  1  0  0  0  0
 25 26  2  0  0  0  0
 26 27  1  0  0  0  0
M  END
$$$$
vertex_jnk3_structure18_lig
