jnk.pp.1-16.sdf
  -OEChem-04100307463D

 30 34  0     0  0  0  0  0  0999 V2000
   18.1010    6.6350   32.2920 O   0  0  0  0  0  0  0  0  0  0  0  0
   18.9580    7.7240   32.5380 N   0  0  0  0  0  0  0  0  0  0  0  0
   20.1940    7.5340   32.1090 C   0  0  0  0  0  0  0  0  0  0  0  0
   20.8250    6.2530   31.6050 C   0  0  0  0  0  0  0  0  0  0  0  0
   20.4130    5.1080   31.8190 O   0  0  0  0  0  0  0  0  0  0  0  0
   21.9250    6.5740   30.9110 N   0  0  0  0  0  0  0  0  0  0  0  0
   22.6090    5.6380   30.0580 C   0  0  0  0  0  0  0  0  0  0  0  0
   23.6110    4.7330   30.7670 C   0  0  0  0  0  0  0  0  0  0  0  0
   23.2260    3.7180   31.6900 C   0  0  0  0  0  0  0  0  0  0  0  0
   24.2140    2.9190   32.3300 C   0  0  0  0  0  0  0  0  0  0  0  0
   23.8560    2.0920   33.2920 F   0  0  0  0  0  0  0  0  0  0  0  0
   25.5860    3.1020   32.0560 C   0  0  0  0  0  0  0  0  0  0  0  0
   25.9740    4.1160   31.1410 C   0  0  0  0  0  0  0  0  0  0  0  0
   27.4620    4.3710   30.9060 C   0  0  0  0  0  0  0  0  0  0  0  0
   27.6590    5.3220   29.8340 O   0  0  0  0  0  0  0  0  0  0  0  0
   26.6720    6.3930   29.6830 C   0  0  0  0  0  0  0  0  0  0  0  0
   25.3100    5.9270   29.6120 O   0  0  0  0  0  0  0  0  0  0  0  0
   24.9810    4.9220   30.5060 C   0  0  0  0  0  0  0  0  0  0  0  0
   22.2650    7.9260   31.1290 C   0  0  0  0  0  0  0  0  0  0  0  0
   23.4170    8.6480   30.7200 C   0  0  0  0  0  0  0  0  0  0  0  0
   23.5090   10.0170   31.0970 C   0  0  0  0  0  0  0  0  0  0  0  0
   22.4620   10.6130   31.8740 C   0  0  0  0  0  0  0  0  0  0  0  0
   21.3180    9.8800   32.2910 C   0  0  0  0  0  0  0  0  0  0  0  0
   21.2600    8.5430   31.8860 C   0  0  0  0  0  0  0  0  0  0  0  0
   20.2830   10.4770   33.1850 C   0  0  0  0  0  0  0  0  0  0  0  0
   20.6400   10.8650   34.4810 C   0  0  0  0  0  0  0  0  0  0  0  0
   19.6760   11.3040   35.4080 C   0  0  0  0  0  0  0  0  0  0  0  0
   18.3210   11.3450   35.0240 C   0  0  0  0  0  0  0  0  0  0  0  0
   17.9330   10.9680   33.7330 C   0  0  0  0  0  0  0  0  0  0  0  0
   18.9220   10.5280   32.8110 C   0  0  0  0  0  0  0  0  0  0  0  0
  1  2  1  0  0  0  0
  2  3  2  0  0  0  0
  3 24  1  0  0  0  0
  3  4  1  0  0  0  0
  4  5  2  0  0  0  0
  4  6  1  0  0  0  0
  6  7  1  0  0  0  0
  7  8  1  0  0  0  0
  8 18  2  0  0  0  0
  8  9  1  0  0  0  0
  9 10  2  0  0  0  0
 10 11  1  0  0  0  0
 10 12  1  0  0  0  0
 12 13  2  0  0  0  0
 13 18  1  0  0  0  0
 13 14  1  0  0  0  0
 14 15  1  0  0  0  0
 15 16  1  0  0  0  0
 16 17  1  0  0  0  0
 17 18  1  0  0  0  0
  6 19  1  0  0  0  0
 19 24  2  0  0  0  0
 19 20  1  0  0  0  0
 20 21  2  0  0  0  0
 21 22  1  0  0  0  0
 22 23  2  0  0  0  0
 23 24  1  0  0  0  0
 23 25  1  0  0  0  0
 25 30  2  0  0  0  0
 25 26  1  0  0  0  0
 26 27  2  0  0  0  0
 27 28  1  0  0  0  0
 28 29  2  0  0  0  0
 29 30  1  0  0  0  0
M  END
$$$$
vertex_jnk3_structure42_lig
