jnk.pp.1-61.sdf
  -OEChem-04100307473D

 26 29  0     0  0  0  0  0  0999 V2000
   24.3880    4.2200   30.1280 O   0  0  0  0  0  0  0  0  0  0  0  0
   23.4000    4.2020   30.8540 C   0  0  0  0  0  0  0  0  0  0  0  0
   23.0390    3.1210   31.5540 N   0  0  0  0  0  0  0  0  0  0  0  0
   23.8890    1.9190   31.6280 C   0  0  0  0  0  0  0  0  0  0  0  0
   24.8300    1.9540   32.8170 C   0  0  0  0  0  0  0  0  0  0  0  0
   24.4170    1.4650   34.1440 C   0  0  0  0  0  0  0  0  0  0  0  0
   25.3210    1.5780   35.3030 C   0  0  0  0  0  0  0  0  0  0  0  0
   26.6490    2.1830   35.1450 C   0  0  0  0  0  0  0  0  0  0  0  0
   27.0790    2.6770   33.8290 C   0  0  0  0  0  0  0  0  0  0  0  0
   26.1690    2.5600   32.6680 C   0  0  0  0  0  0  0  0  0  0  0  0
   22.6680    5.3710   30.9300 C   0  0  0  0  0  0  0  0  0  0  0  0
   21.5550    5.4510   31.8050 C   0  0  0  0  0  0  0  0  0  0  0  0
   21.1360    6.7870   31.6010 C   0  0  0  0  0  0  0  0  0  0  0  0
   21.9580    7.4160   30.6660 C   0  0  0  0  0  0  0  0  0  0  0  0
   22.8980    6.5210   30.2690 N   0  0  0  0  0  0  0  0  0  0  0  0
   19.9550    7.4110   32.3220 C   0  0  0  0  0  0  0  0  0  0  0  0
   18.9680    6.6380   32.7950 N   0  0  0  0  0  0  0  0  0  0  0  0
   17.9930    7.2870   33.4410 N   0  0  0  0  0  0  0  0  0  0  0  0
   18.3630    8.6160   33.3950 C   0  0  0  0  0  0  0  0  0  0  0  0
   19.5940    8.8290   32.7070 C   0  0  0  0  0  0  0  0  0  0  0  0
   20.2410   10.1810   32.4740 C   0  0  0  0  0  0  0  0  0  0  0  0
   19.4420   11.4270   32.5120 C   0  0  0  0  0  0  0  0  0  0  0  0
   20.0370   12.7330   32.2720 C   0  0  0  0  0  0  0  0  0  0  0  0
   21.4760   12.8400   31.9760 C   0  0  0  0  0  0  0  0  0  0  0  0
   22.3260   11.6400   31.9270 C   0  0  0  0  0  0  0  0  0  0  0  0
   21.6910   10.3430   32.1770 C   0  0  0  0  0  0  0  0  0  0  0  0
  1  2  2  0  0  0  0
  2  3  1  0  0  0  0
  3  4  1  0  0  0  0
  4  5  1  0  0  0  0
  5 10  2  0  0  0  0
  5  6  1  0  0  0  0
  6  7  2  0  0  0  0
  7  8  1  0  0  0  0
  8  9  2  0  0  0  0
  9 10  1  0  0  0  0
  2 11  1  0  0  0  0
 11 15  1  0  0  0  0
 11 12  2  0  0  0  0
 12 13  1  0  0  0  0
 13 14  2  0  0  0  0
 14 15  1  0  0  0  0
 13 16  1  0  0  0  0
 16 20  1  0  0  0  0
 16 17  2  0  0  0  0
 17 18  1  0  0  0  0
 18 19  1  0  0  0  0
 19 20  2  0  0  0  0
 20 21  1  0  0  0  0
 21 26  2  0  0  0  0
 21 22  1  0  0  0  0
 22 23  2  0  0  0  0
 23 24  1  0  0  0  0
 24 25  2  0  0  0  0
 25 26  1  0  0  0  0
M  END
$$$$
vertex_jnk3_structure47_lig
