jnk.pp.1-34.sdf
  -OEChem-04100307473D

 20 22  0     0  0  0  0  0  0999 V2000
   22.8220    9.6690   30.3590 C   0  0  0  0  0  0  0  0  0  0  0  0
   22.0600   10.5300   31.3620 C   0  0  0  0  0  0  0  0  0  0  0  0
   22.1160   11.8170   31.5040 N   0  0  0  0  0  0  0  0  0  0  0  0
   21.3360   12.4120   32.5110 O   0  0  0  0  0  0  0  0  0  0  0  0
   20.7360   11.3230   33.0690 C   0  0  0  0  0  0  0  0  0  0  0  0
   19.8490   11.5790   34.2980 C   0  0  0  0  0  0  0  0  0  0  0  0
   21.0380   10.1590   32.3850 C   0  0  0  0  0  0  0  0  0  0  0  0
   20.4350    8.7510   32.4730 C   0  0  0  0  0  0  0  0  0  0  0  0
   19.1120    8.4990   32.8660 C   0  0  0  0  0  0  0  0  0  0  0  0
   18.7090    7.1770   32.9060 C   0  0  0  0  0  0  0  0  0  0  0  0
   19.5740    6.2280   32.5560 N   0  0  0  0  0  0  0  0  0  0  0  0
   20.7990    6.4800   32.1920 C   0  0  0  0  0  0  0  0  0  0  0  0
   21.6200    5.3910   31.8570 N   0  0  0  0  0  0  0  0  0  0  0  0
   22.8320    5.4320   31.1420 C   0  0  0  0  0  0  0  0  0  0  0  0
   23.5190    4.2330   31.1360 C   0  0  0  0  0  0  0  0  0  0  0  0
   24.7140    4.0830   30.4310 C   0  0  0  0  0  0  0  0  0  0  0  0
   25.2140    5.1690   29.7340 C   0  0  0  0  0  0  0  0  0  0  0  0
   24.5600    6.3810   29.7260 C   0  0  0  0  0  0  0  0  0  0  0  0
   23.3590    6.5150   30.4320 C   0  0  0  0  0  0  0  0  0  0  0  0
   21.2330    7.7210   32.1410 N   0  0  0  0  0  0  0  0  0  0  0  0
  1  2  1  0  0  0  0
  2  7  1  0  0  0  0
  2  3  2  0  0  0  0
  3  4  1  0  0  0  0
  4  5  1  0  0  0  0
  5  6  1  0  0  0  0
  5  7  2  0  0  0  0
  7  8  1  0  0  0  0
  8 20  2  0  0  0  0
  8  9  1  0  0  0  0
  9 10  2  0  0  0  0
 10 11  1  0  0  0  0
 11 12  2  0  0  0  0
 12 13  1  0  0  0  0
 13 14  1  0  0  0  0
 14 19  2  0  0  0  0
 14 15  1  0  0  0  0
 15 16  2  0  0  0  0
 16 17  1  0  0  0  0
 17 18  2  0  0  0  0
 18 19  1  0  0  0  0
 12 20  1  0  0  0  0
M  END
$$$$
vertex_jnk3_structure46_lig
