jnk.pp.1-36.sdf
  -OEChem-12220712583D

 58 61  0     0  0  0  0  0  0999 V2000
   30.8465   10.0371   32.0094 C   0  0  0  0  0  0  0  0  0  0  0  0
   20.1166   12.4235   33.6468 C   0  0  0  0  0  0  0  0  0  0  0  0
   19.9463   11.0708   33.8779 C   0  0  0  0  0  0  0  0  0  0  0  0
   29.6905    9.5437   31.3867 C   0  0  0  0  0  0  0  0  0  0  0  0
   23.7756    8.3575   28.6410 C   0  0  0  0  0  0  0  0  0  0  0  0
   24.6444    7.8873   29.5692 C   0  0  0  0  0  0  0  0  0  0  0  0
   30.8119   10.3907   33.3462 C   0  0  0  0  0  0  0  0  0  0  0  0
   28.5352    9.5478   33.4591 C   0  0  0  0  0  0  0  0  0  0  0  0
   23.4511    9.1642   31.2115 C   0  0  0  0  0  0  0  0  0  0  0  0
   20.8572   12.8195   32.5456 C   0  0  0  0  0  0  0  0  0  0  0  0
   18.4307    7.2527   33.0099 C   0  0  0  0  0  0  0  0  0  0  0  0
   20.4161   10.1509   32.9424 C   0  0  0  0  0  0  0  0  0  0  0  0
   28.4684    9.3122   32.0594 C   0  0  0  0  0  0  0  0  0  0  0  0
   22.6907    9.1647   28.9890 C   0  0  0  0  0  0  0  0  0  0  0  0
   24.6247    8.6268   30.7055 C   0  0  0  0  0  0  0  0  0  0  0  0
   29.6484   10.1606   34.0635 C   0  0  0  0  0  0  0  0  0  0  0  0
   22.4329    9.3914   30.3360 C   0  0  0  0  0  0  0  0  0  0  0  0
   21.1205   10.6522   31.8517 C   0  0  0  0  0  0  0  0  0  0  0  0
   20.0413    8.7587   33.0151 C   0  0  0  0  0  0  0  0  0  0  0  0
   20.5707    6.6027   32.7910 C   0  0  0  0  0  0  0  0  0  0  0  0
   27.1274    8.8408   31.1204 C   0  0  0  0  0  0  0  0  0  0  0  0
   22.0225    9.9460   27.9160 C   0  0  0  0  0  0  0  0  0  0  0  0
   22.3479    5.7345   31.4967 C   0  0  0  0  0  0  0  0  0  0  0  0
   30.1056   11.1517   37.5677 C   0  0  0  0  0  0  0  0  0  0  0  0
   30.1305   10.2061   36.3659 C   0  0  0  0  0  0  0  0  0  0  0  0
   21.3917   11.9642   31.6527 N   0  0  0  0  0  0  0  0  0  0  0  0
   18.7344    8.5261   33.1204 N   0  0  0  0  0  0  0  0  0  0  0  0
   19.2945    6.2619   32.8577 N   0  0  0  0  0  0  0  0  0  0  0  0
   21.0014    7.8459   32.8748 N   0  0  0  0  0  0  0  0  0  0  0  0
   25.7744    9.1421   31.2939 N   0  0  0  0  0  0  0  0  0  0  0  0
   21.4522    5.5445   32.6181 N   0  0  0  0  0  0  0  0  0  0  0  0
   27.2567    8.1401   30.1446 O   0  0  0  0  0  0  0  0  0  0  0  0
   21.2217    9.8380   30.7368 O   0  0  0  0  0  0  0  0  0  0  0  0
   29.4499   10.7986   35.2598 O   0  0  0  0  0  0  0  0  0  0  0  0
   30.7801   12.3033   37.3011 F   0  0  0  0  0  0  0  0  0  0  0  0
   30.7147   10.5962   38.6495 F   0  0  0  0  0  0  0  0  0  0  0  0
   31.4014    9.8730   36.0315 F   0  0  0  0  0  0  0  0  0  0  0  0
   29.4655    9.0655   36.6607 F   0  0  0  0  0  0  0  0  0  0  0  0
   31.7459   10.2061   31.4213 H   0  0  0  0  0  0  0  0  0  0  0  0
   19.6625   13.1426   34.3158 H   0  0  0  0  0  0  0  0  0  0  0  0
   19.3851   10.7331   34.7439 H   0  0  0  0  0  0  0  0  0  0  0  0
   29.7605    9.3628   30.3313 H   0  0  0  0  0  0  0  0  0  0  0  0
   24.1458    8.2841   27.6313 H   0  0  0  0  0  0  0  0  0  0  0  0
   25.4917    7.3137   29.2399 H   0  0  0  0  0  0  0  0  0  0  0  0
   31.6654   10.8877   33.7985 H   0  0  0  0  0  0  0  0  0  0  0  0
   27.6766    9.4230   34.1011 H   0  0  0  0  0  0  0  0  0  0  0  0
   23.3965    9.5144   32.2360 H   0  0  0  0  0  0  0  0  0  0  0  0
   21.0259   13.8715   32.3365 H   0  0  0  0  0  0  0  0  0  0  0  0
   17.3840    6.9923   33.0312 H   0  0  0  0  0  0  0  0  0  0  0  0
   20.9878    9.6702   27.7708 H   0  0  0  0  0  0  0  0  0  0  0  0
   22.0833   11.0047   28.1725 H   0  0  0  0  0  0  0  0  0  0  0  0
   22.5369    9.8249   26.9601 H   0  0  0  0  0  0  0  0  0  0  0  0
   23.1090    6.4741   31.7399 H   0  0  0  0  0  0  0  0  0  0  0  0
   21.8150    6.0279   30.5859 H   0  0  0  0  0  0  0  0  0  0  0  0
   22.8679    4.7940   31.2880 H   0  0  0  0  0  0  0  0  0  0  0  0
   29.0842   11.4184   37.8509 H   0  0  0  0  0  0  0  0  0  0  0  0
   25.4964    9.8004   32.0018 H   0  0  0  0  0  0  0  0  0  0  0  0
   20.8522    4.7353   32.4961 H   0  0  0  0  0  0  0  0  0  0  0  0
  1  4  2  0  0  0  0
  1  7  1  0  0  0  0
  2  3  2  0  0  0  0
  2 10  1  0  0  0  0
  3 12  1  0  0  0  0
  4 13  1  0  0  0  0
  5  6  2  0  0  0  0
  5 14  1  0  0  0  0
  6 15  1  0  0  0  0
  7 16  2  0  0  0  0
  8 13  2  0  0  0  0
  8 16  1  0  0  0  0
  9 15  2  0  0  0  0
  9 17  1  0  0  0  0
 10 26  2  0  0  0  0
 11 27  2  0  0  0  0
 11 28  1  0  0  0  0
 12 18  2  0  0  0  0
 12 19  1  0  0  0  0
 13 21  1  0  0  0  0
 14 17  2  0  0  0  0
 14 22  1  0  0  0  0
 15 30  1  0  0  0  0
 16 34  1  0  0  0  0
 17 33  1  0  0  0  0
 18 26  1  0  0  0  0
 18 33  1  0  0  0  0
 19 27  1  0  0  0  0
 19 29  2  0  0  0  0
 20 28  2  0  0  0  0
 20 29  1  0  0  0  0
 20 31  1  0  0  0  0
 21 30  1  0  0  0  0
 21 32  2  0  0  0  0
 23 31  1  0  0  0  0
 24 25  1  0  0  0  0
 24 35  1  0  0  0  0
 24 36  1  0  0  0  0
 25 34  1  0  0  0  0
 25 37  1  0  0  0  0
 25 38  1  0  0  0  0
  1 39  1  0  0  0  0
  2 40  1  0  0  0  0
  3 41  1  0  0  0  0
  4 42  1  0  0  0  0
  5 43  1  0  0  0  0
  6 44  1  0  0  0  0
  7 45  1  0  0  0  0
  8 46  1  0  0  0  0
  9 47  1  0  0  0  0
 10 48  1  0  0  0  0
 11 49  1  0  0  0  0
 22 50  1  0  0  0  0
 22 51  1  0  0  0  0
 22 52  1  0  0  0  0
 23 53  1  0  0  0  0
 23 54  1  0  0  0  0
 23 55  1  0  0  0  0
 24 56  1  0  0  0  0
 30 57  1  0  0  0  0
 31 58  1  0  0  0  0
M  END
$$$$
