jnk.pp.1-21.sdf
  -OEChem-04100307463D

 27 29  0     0  0  0  0  0  0999 V2000
   18.4640    7.4210   33.0130 N   0  0  0  0  0  0  0  0  0  0  0  0
   19.7350    7.0910   32.7740 C   0  0  0  0  0  0  0  0  0  0  0  0
   20.1420    5.9900   33.1320 O   0  0  0  0  0  0  0  0  0  0  0  0
   20.5690    7.9650   32.1200 N   0  0  0  0  0  0  0  0  0  0  0  0
   20.3170    9.3980   32.0450 C   0  0  0  0  0  0  0  0  0  0  0  0
   20.7710   10.2730   30.9390 C   0  0  0  0  0  0  0  0  0  0  0  0
   20.6390   11.7000   31.0800 C   0  0  0  0  0  0  0  0  0  0  0  0
   20.0730   12.2960   32.2440 C   0  0  0  0  0  0  0  0  0  0  0  0
   19.5930   11.4320   33.3390 C   0  0  0  0  0  0  0  0  0  0  0  0
   19.7690   10.0110   33.1350 N   0  0  0  0  0  0  0  0  0  0  0  0
   18.7130   11.8780   34.4780 C   0  0  0  0  0  0  0  0  0  0  0  0
   18.9360   11.2000   35.7770 C   0  0  0  0  0  0  0  0  0  0  0  0
   18.1680   11.5910   36.9680 C   0  0  0  0  0  0  0  0  0  0  0  0
   17.1770   12.6630   36.8850 C   0  0  0  0  0  0  0  0  0  0  0  0
   16.9520   13.3420   35.6080 C   0  0  0  0  0  0  0  0  0  0  0  0
   16.0370   14.7660   35.6160 Cl  0  0  0  0  0  0  0  0  0  0  0  0
   17.6920   12.9620   34.4000 C   0  0  0  0  0  0  0  0  0  0  0  0
   17.3170   13.6620   33.0900 C   0  0  0  0  0  0  0  0  0  0  0  0
   18.2510   14.7150   32.8640 O   0  0  0  0  0  0  0  0  0  0  0  0
   21.7340    7.4170   31.4960 C   0  0  0  0  0  0  0  0  0  0  0  0
   23.0910    7.7310   31.9520 C   0  0  0  0  0  0  0  0  0  0  0  0
   23.1770    8.6250   32.9190 F   0  0  0  0  0  0  0  0  0  0  0  0
   24.2570    7.2100   31.2510 C   0  0  0  0  0  0  0  0  0  0  0  0
   24.0610    6.3500   30.0760 C   0  0  0  0  0  0  0  0  0  0  0  0
   22.6990    6.0260   29.6120 C   0  0  0  0  0  0  0  0  0  0  0  0
   21.5320    6.5700   30.3280 C   0  0  0  0  0  0  0  0  0  0  0  0
   20.2670    6.4230   29.9110 F   0  0  0  0  0  0  0  0  0  0  0  0
  1  2  1  0  0  0  0
  2  3  2  0  0  0  0
  2  4  1  0  0  0  0
  4  5  1  0  0  0  0
  5 10  2  0  0  0  0
  5  6  1  0  0  0  0
  6  7  2  0  0  0  0
  7  8  1  0  0  0  0
  8  9  2  0  0  0  0
  9 10  1  0  0  0  0
  9 11  1  0  0  0  0
 11 17  2  0  0  0  0
 11 12  1  0  0  0  0
 12 13  2  0  0  0  0
 13 14  1  0  0  0  0
 14 15  2  0  0  0  0
 15 16  1  0  0  0  0
 15 17  1  0  0  0  0
 17 18  1  0  0  0  0
 18 19  1  0  0  0  0
  4 20  1  0  0  0  0
 20 26  2  0  0  0  0
 20 21  1  0  0  0  0
 21 22  1  0  0  0  0
 21 23  2  0  0  0  0
 23 24  1  0  0  0  0
 24 25  2  0  0  0  0
 25 26  1  0  0  0  0
 26 27  1  0  0  0  0
M  END
$$$$
vertex_jnk3_structure31_lig
