jnk.pp.1-24.sdf
  -OEChem-04100307463D

 22 24  0     0  0  0  0  0  0999 V2000
   15.3910   13.5390   36.2900 F   0  0  0  0  0  0  0  0  0  0  0  0
   16.5020   13.2880   35.5200 C   0  0  0  0  0  0  0  0  0  0  0  0
   16.5280   13.9990   34.3120 C   0  0  0  0  0  0  0  0  0  0  0  0
   17.5710   13.7310   33.4050 C   0  0  0  0  0  0  0  0  0  0  0  0
   18.5740   12.7830   33.7440 C   0  0  0  0  0  0  0  0  0  0  0  0
   19.7000   12.6200   32.7720 C   0  0  0  0  0  0  0  0  0  0  0  0
   20.1630   13.6370   31.9870 C   0  0  0  0  0  0  0  0  0  0  0  0
   21.6490   13.0460   31.0840 S   0  0  0  0  0  0  0  0  0  0  0  0
   21.3510   11.4150   31.5630 C   0  0  0  0  0  0  0  0  0  0  0  0
   22.0780   10.4050   30.9690 N   0  0  0  0  0  0  0  0  0  0  0  0
   21.9540    9.0210   31.1870 C   0  0  0  0  0  0  0  0  0  0  0  0
   20.8980    8.5830   32.0160 C   0  0  0  0  0  0  0  0  0  0  0  0
   20.7620    7.2240   32.2460 C   0  0  0  0  0  0  0  0  0  0  0  0
   19.7780    6.8210   33.1050 F   0  0  0  0  0  0  0  0  0  0  0  0
   21.6600    6.3320   31.6530 C   0  0  0  0  0  0  0  0  0  0  0  0
   22.7510    6.7360   30.8000 C   0  0  0  0  0  0  0  0  0  0  0  0
   22.8830    8.1160   30.5800 C   0  0  0  0  0  0  0  0  0  0  0  0
   23.9390    8.5950   29.8910 F   0  0  0  0  0  0  0  0  0  0  0  0
   20.4110   11.3270   32.5580 N   0  0  0  0  0  0  0  0  0  0  0  0
   18.5300   12.0750   34.9770 C   0  0  0  0  0  0  0  0  0  0  0  0
   19.5520   11.1800   35.3580 F   0  0  0  0  0  0  0  0  0  0  0  0
   17.4800   12.3190   35.8920 C   0  0  0  0  0  0  0  0  0  0  0  0
  1  2  1  0  0  0  0
  2 22  2  0  0  0  0
  2  3  1  0  0  0  0
  3  4  2  0  0  0  0
  4  5  1  0  0  0  0
  5  6  1  0  0  0  0
  6 19  1  0  0  0  0
  6  7  2  0  0  0  0
  7  8  1  0  0  0  0
  8  9  1  0  0  0  0
  9 10  1  0  0  0  0
 10 11  1  0  0  0  0
 11 17  2  0  0  0  0
 11 12  1  0  0  0  0
 12 13  2  0  0  0  0
 13 14  1  0  0  0  0
 13 15  1  0  0  0  0
 15 16  2  0  0  0  0
 16 17  1  0  0  0  0
 17 18  1  0  0  0  0
  9 19  2  0  0  0  0
  5 20  2  0  0  0  0
 20 21  1  0  0  0  0
 20 22  1  0  0  0  0
M  END
$$$$
vertex_jnk3_structure2_lig
