jnk.pp.1-40.sdf
  -OEChem-04100307473D

 30 33  0     0  0  0  0  0  0999 V2000
   26.4870    0.7430   30.7720 C   0  0  0  0  0  0  0  0  0  0  0  0
   26.9250    2.0710   30.4940 O   0  0  0  0  0  0  0  0  0  0  0  0
   25.9210    3.0640   30.5900 C   0  0  0  0  0  0  0  0  0  0  0  0
   25.1440    3.2860   31.8540 C   0  0  0  0  0  0  0  0  0  0  0  0
   24.1080    4.3180   31.9340 C   0  0  0  0  0  0  0  0  0  0  0  0
   23.8310    5.1350   30.7600 C   0  0  0  0  0  0  0  0  0  0  0  0
   24.5790    4.9580   29.5050 C   0  0  0  0  0  0  0  0  0  0  0  0
   25.6260    3.9260   29.4130 C   0  0  0  0  0  0  0  0  0  0  0  0
   22.7560    6.1540   30.8500 C   0  0  0  0  0  0  0  0  0  0  0  0
   22.7770    7.1800   30.1640 O   0  0  0  0  0  0  0  0  0  0  0  0
   21.7640    5.8860   31.7340 N   0  0  0  0  0  0  0  0  0  0  0  0
   20.8100    6.8440   32.1060 C   0  0  0  0  0  0  0  0  0  0  0  0
   19.5540    6.4940   32.4960 N   0  0  0  0  0  0  0  0  0  0  0  0
   18.6040    7.4360   32.7970 C   0  0  0  0  0  0  0  0  0  0  0  0
   18.8390    8.8470   32.7340 C   0  0  0  0  0  0  0  0  0  0  0  0
   20.1900    9.1390   32.3260 C   0  0  0  0  0  0  0  0  0  0  0  0
   21.1290    8.1660   32.0270 N   0  0  0  0  0  0  0  0  0  0  0  0
   20.6340   10.5560   32.2180 C   0  0  0  0  0  0  0  0  0  0  0  0
   21.4950   11.0300   31.2770 C   0  0  0  0  0  0  0  0  0  0  0  0
   22.4070   10.3080   30.2960 C   0  0  0  0  0  0  0  0  0  0  0  0
   21.4590   12.3730   31.2440 O   0  0  0  0  0  0  0  0  0  0  0  0
   20.6580   12.7290   32.3200 N   0  0  0  0  0  0  0  0  0  0  0  0
   20.1130   11.7500   32.9910 C   0  0  0  0  0  0  0  0  0  0  0  0
   19.1810   11.8770   34.1650 C   0  0  0  0  0  0  0  0  0  0  0  0
   19.2960   11.0620   35.3900 C   0  0  0  0  0  0  0  0  0  0  0  0
   18.2940   11.1810   36.4510 C   0  0  0  0  0  0  0  0  0  0  0  0
   17.1770   12.1200   36.2860 C   0  0  0  0  0  0  0  0  0  0  0  0
   16.2270   12.2430   37.1590 F   0  0  0  0  0  0  0  0  0  0  0  0
   17.0720   12.9250   35.0830 C   0  0  0  0  0  0  0  0  0  0  0  0
   18.0750   12.8050   34.0230 C   0  0  0  0  0  0  0  0  0  0  0  0
  1  2  1  0  0  0  0
  2  3  1  0  0  0  0
  3  8  2  0  0  0  0
  3  4  1  0  0  0  0
  4  5  2  0  0  0  0
  5  6  1  0  0  0  0
  6  7  2  0  0  0  0
  7  8  1  0  0  0  0
  6  9  1  0  0  0  0
  9 10  2  0  0  0  0
  9 11  1  0  0  0  0
 11 12  1  0  0  0  0
 12 17  2  0  0  0  0
 12 13  1  0  0  0  0
 13 14  2  0  0  0  0
 14 15  1  0  0  0  0
 15 16  2  0  0  0  0
 16 17  1  0  0  0  0
 16 18  1  0  0  0  0
 18 23  1  0  0  0  0
 18 19  2  0  0  0  0
 19 20  1  0  0  0  0
 19 21  1  0  0  0  0
 21 22  1  0  0  0  0
 22 23  2  0  0  0  0
 23 24  1  0  0  0  0
 24 30  2  0  0  0  0
 24 25  1  0  0  0  0
 25 26  2  0  0  0  0
 26 27  1  0  0  0  0
 27 28  1  0  0  0  0
 27 29  2  0  0  0  0
 29 30  1  0  0  0  0
M  END
$$$$
vertex_jnk3_structure5_lig
