jnk.pp.1-38.sdf
  -OEChem-04100307463D

 25 28  0     0  0  0  0  0  0999 V2000
   22.4210   10.4770   30.6770 C   0  0  0  0  0  0  0  0  0  0  0  0
   21.4360   11.1120   31.6480 C   0  0  0  0  0  0  0  0  0  0  0  0
   21.4420   12.4550   31.6590 O   0  0  0  0  0  0  0  0  0  0  0  0
   20.4790   12.7280   32.5720 N   0  0  0  0  0  0  0  0  0  0  0  0
   19.9360   11.7470   33.2230 C   0  0  0  0  0  0  0  0  0  0  0  0
   20.5150   10.5760   32.5290 C   0  0  0  0  0  0  0  0  0  0  0  0
   20.1070    9.1420   32.6760 C   0  0  0  0  0  0  0  0  0  0  0  0
   18.7520    8.7580   33.0590 C   0  0  0  0  0  0  0  0  0  0  0  0
   18.5870    7.3230   33.1510 C   0  0  0  0  0  0  0  0  0  0  0  0
   19.6400    6.4460   32.8990 N   0  0  0  0  0  0  0  0  0  0  0  0
   20.8890    6.9080   32.5440 C   0  0  0  0  0  0  0  0  0  0  0  0
   21.9990    6.0830   32.3750 N   0  0  0  0  0  0  0  0  0  0  0  0
   22.6940    5.6210   31.1750 C   0  0  0  0  0  0  0  0  0  0  0  0
   23.9950    5.0490   31.7440 C   0  0  0  0  0  0  0  0  0  0  0  0
   25.0370    4.6880   30.6940 C   0  0  0  0  0  0  0  0  0  0  0  0
   25.2610    5.8130   29.6910 C   0  0  0  0  0  0  0  0  0  0  0  0
   23.9630    6.2900   29.0640 C   0  0  0  0  0  0  0  0  0  0  0  0
   22.9520    6.7010   30.1210 C   0  0  0  0  0  0  0  0  0  0  0  0
   21.1080    8.2410   32.4310 N   0  0  0  0  0  0  0  0  0  0  0  0
   19.0010   11.9450   34.3550 C   0  0  0  0  0  0  0  0  0  0  0  0
   19.2040   11.2500   35.6200 C   0  0  0  0  0  0  0  0  0  0  0  0
   18.2780   11.4700   36.7400 C   0  0  0  0  0  0  0  0  0  0  0  0
   17.1430   12.3830   36.5860 C   0  0  0  0  0  0  0  0  0  0  0  0
   16.9450   13.0780   35.3070 C   0  0  0  0  0  0  0  0  0  0  0  0
   17.8750   12.8610   34.1900 C   0  0  0  0  0  0  0  0  0  0  0  0
  1  2  1  0  0  0  0
  2  6  2  0  0  0  0
  2  3  1  0  0  0  0
  3  4  1  0  0  0  0
  4  5  2  0  0  0  0
  5  6  1  0  0  0  0
  6  7  1  0  0  0  0
  7 19  2  0  0  0  0
  7  8  1  0  0  0  0
  8  9  2  0  0  0  0
  9 10  1  0  0  0  0
 10 11  2  0  0  0  0
 11 12  1  0  0  0  0
 12 13  1  0  0  0  0
 13 18  1  0  0  0  0
 13 14  1  0  0  0  0
 14 15  1  0  0  0  0
 15 16  1  0  0  0  0
 16 17  1  0  0  0  0
 17 18  1  0  0  0  0
 11 19  1  0  0  0  0
  5 20  1  0  0  0  0
 20 25  2  0  0  0  0
 20 21  1  0  0  0  0
 21 22  2  0  0  0  0
 22 23  1  0  0  0  0
 23 24  2  0  0  0  0
 24 25  1  0  0  0  0
M  END
$$$$
vertex_jnk3_structure22_lig
