jnk.pp.1-51.sdf
  -OEChem-04100307473D

 15 17  0     0  0  0  0  0  0999 V2000
   25.3900    4.9470   29.6490 Cl  0  0  0  0  0  0  0  0  0  0  0  0
   23.8570    5.5150   30.2500 C   0  0  0  0  0  0  0  0  0  0  0  0
   22.8290    4.6400   30.8370 C   0  0  0  0  0  0  0  0  0  0  0  0
   21.6350    5.2210   31.5050 C   0  0  0  0  0  0  0  0  0  0  0  0
   21.4570    6.6840   31.5950 C   0  0  0  0  0  0  0  0  0  0  0  0
   22.5120    7.5350   30.9860 C   0  0  0  0  0  0  0  0  0  0  0  0
   23.6840    6.9660   30.3280 C   0  0  0  0  0  0  0  0  0  0  0  0
   20.2790    7.2610   32.3340 C   0  0  0  0  0  0  0  0  0  0  0  0
   19.2610    6.4920   32.8670 N   0  0  0  0  0  0  0  0  0  0  0  0
   18.4690    7.3830   33.4740 N   0  0  0  0  0  0  0  0  0  0  0  0
   18.8420    8.6490   33.4060 C   0  0  0  0  0  0  0  0  0  0  0  0
   18.5270    9.9720   34.0120 C   0  0  0  0  0  0  0  0  0  0  0  0
   19.6100   10.8370   33.2850 C   0  0  0  0  0  0  0  0  0  0  0  0
   20.5870    9.9530   32.4530 C   0  0  0  0  0  0  0  0  0  0  0  0
   19.9840    8.5930   32.6800 C   0  0  0  0  0  0  0  0  0  0  0  0
  1  2  1  0  0  0  0
  2  7  2  0  0  0  0
  2  3  1  0  0  0  0
  3  4  2  0  0  0  0
  4  5  1  0  0  0  0
  5  6  2  0  0  0  0
  6  7  1  0  0  0  0
  5  8  1  0  0  0  0
  8 15  2  0  0  0  0
  8  9  1  0  0  0  0
  9 10  1  0  0  0  0
 10 11  2  0  0  0  0
 11 15  1  0  0  0  0
 11 12  1  0  0  0  0
 12 13  1  0  0  0  0
 13 14  1  0  0  0  0
 14 15  1  0  0  0  0
M  END
$$$$
vertex_jnk3_structure40_lig
