jnk.pp.1-60.sdf
  -OEChem-04100307473D

 30 34  0     0  0  0  0  0  0999 V2000
   17.7020    6.3500   32.4650 O   0  0  0  0  0  0  0  0  0  0  0  0
   18.6480    7.2900   32.9530 N   0  0  0  0  0  0  0  0  0  0  0  0
   19.8160    7.2850   32.2680 C   0  0  0  0  0  0  0  0  0  0  0  0
   20.5290    6.2450   31.3720 C   0  0  0  0  0  0  0  0  0  0  0  0
   20.2180    5.0640   31.2720 O   0  0  0  0  0  0  0  0  0  0  0  0
   21.5740    6.7960   30.7210 N   0  0  0  0  0  0  0  0  0  0  0  0
   22.4360    6.1570   29.7130 C   0  0  0  0  0  0  0  0  0  0  0  0
   23.6250    5.4220   30.3390 C   0  0  0  0  0  0  0  0  0  0  0  0
   23.4460    4.4620   31.4000 C   0  0  0  0  0  0  0  0  0  0  0  0
   24.5730    3.8180   31.9350 C   0  0  0  0  0  0  0  0  0  0  0  0
   24.2740    2.7860   32.7180 F   0  0  0  0  0  0  0  0  0  0  0  0
   25.8780    4.0850   31.4880 C   0  0  0  0  0  0  0  0  0  0  0  0
   26.0350    5.0310   30.4400 C   0  0  0  0  0  0  0  0  0  0  0  0
   27.4200    5.2670   29.8800 C   0  0  0  0  0  0  0  0  0  0  0  0
   27.3460    6.3740   28.9320 O   0  0  0  0  0  0  0  0  0  0  0  0
   26.2950    7.3750   29.0920 C   0  0  0  0  0  0  0  0  0  0  0  0
   25.0160    6.7410   29.0060 O   0  0  0  0  0  0  0  0  0  0  0  0
   24.9200    5.6940   29.8800 C   0  0  0  0  0  0  0  0  0  0  0  0
   21.7090    8.1060   31.1580 C   0  0  0  0  0  0  0  0  0  0  0  0
   22.6760    9.0310   30.7930 C   0  0  0  0  0  0  0  0  0  0  0  0
   22.5710   10.2640   31.4220 C   0  0  0  0  0  0  0  0  0  0  0  0
   21.5850   10.5680   32.3530 C   0  0  0  0  0  0  0  0  0  0  0  0
   20.6140    9.6360   32.7160 C   0  0  0  0  0  0  0  0  0  0  0  0
   20.7210    8.4200   32.0920 C   0  0  0  0  0  0  0  0  0  0  0  0
   23.5260   11.3090   31.2080 C   0  0  0  0  0  0  0  0  0  0  0  0
   23.2490   12.6680   31.5450 C   0  0  0  0  0  0  0  0  0  0  0  0
   24.2880   13.6390   31.5490 C   0  0  0  0  0  0  0  0  0  0  0  0
   25.5470   13.1700   31.1910 C   0  0  0  0  0  0  0  0  0  0  0  0
   25.8000   11.8230   30.8460 C   0  0  0  0  0  0  0  0  0  0  0  0
   24.7630   10.8820   30.8560 C   0  0  0  0  0  0  0  0  0  0  0  0
  1  2  1  0  0  0  0
  2  3  2  0  0  0  0
  3 24  1  0  0  0  0
  3  4  1  0  0  0  0
  4  5  2  0  0  0  0
  4  6  1  0  0  0  0
  6  7  1  0  0  0  0
  7  8  1  0  0  0  0
  8 18  2  0  0  0  0
  8  9  1  0  0  0  0
  9 10  2  0  0  0  0
 10 11  1  0  0  0  0
 10 12  1  0  0  0  0
 12 13  2  0  0  0  0
 13 18  1  0  0  0  0
 13 14  1  0  0  0  0
 14 15  1  0  0  0  0
 15 16  1  0  0  0  0
 16 17  1  0  0  0  0
 17 18  1  0  0  0  0
  6 19  1  0  0  0  0
 19 24  2  0  0  0  0
 19 20  1  0  0  0  0
 20 21  2  0  0  0  0
 21 22  1  0  0  0  0
 22 23  2  0  0  0  0
 23 24  1  0  0  0  0
 21 25  1  0  0  0  0
 25 30  2  0  0  0  0
 25 26  1  0  0  0  0
 26 27  2  0  0  0  0
 27 28  1  0  0  0  0
 28 29  2  0  0  0  0
 29 30  1  0  0  0  0
M  END
$$$$
vertex_jnk3_structure37_lig
